Version 4
SHEET 1 1184 684
WIRE 640 -240 560 -240
WIRE 640 -192 640 -240
WIRE 384 176 384 96
WIRE 560 176 560 -160
WIRE 560 176 384 176
WIRE 256 240 256 96
WIRE 256 240 96 240
WIRE 320 240 320 96
WIRE 736 240 320 240
WIRE 752 288 448 288
WIRE 560 320 560 176
WIRE 800 320 800 288
WIRE 800 320 560 320
WIRE 448 336 448 288
FLAG 96 240 PWM
IOPIN 96 240 In
FLAG 448 336 0
FLAG 640 -192 0
FLAG 816 224 A
IOPIN 816 224 Out
FLAG 816 256 B
IOPIN 816 256 Out
SYMBOL Misc\\DIP8 352 -16 R270
WINDOW 3 0 -116 Center 2
SYMATTR Value TC4426_Rev2_SPICE_Model
SYMATTR InstName U1
SYMBOL SPDT 720 240 R270
SYMATTR InstName U2
SYMBOL voltage 560 -144 R180
WINDOW 0 24 96 Left 2
WINDOW 3 24 16 Left 2
SYMATTR InstName V1
TEXT -208 456 Left 2 !.include TC4426_Rev2_SPICE_Model.mod
TEXT -200 496 Left 2 !X1 IN OUT VDD GND TC4426_I2D_B
TEXT -208 528 Left 2 !.subckt SPDT COM NO NC POS NEG\nS1 COM NO POS NEG MYSW1\nS2 COM NC NEG POS MYSW2\n.model MYSW1 SW(Ron=.01 Roff=1000Meg Vh=.25 Vt=.5)\n.model MYSW2 SW(Ron=.01 Roff=1000Meg Vh=.25 Vt=-.5)\n.ends
