Version 4
SHEET 1 880 680
WIRE -416 192 -416 176
WIRE -320 192 -416 192
WIRE -320 208 -320 192
WIRE -416 256 -416 192
WIRE -320 304 -320 288
WIRE -272 304 -320 304
WIRE -320 320 -320 304
WIRE -416 416 -416 336
WIRE -320 416 -320 400
FLAG -416 416 0
FLAG -416 176 +V
FLAG -320 416 0
FLAG -272 304 out
SYMBOL voltage -416 240 R0
WINDOW 123 0 0 Left 0
WINDOW 39 0 0 Left 0
SYMATTR InstName V1
SYMATTR Value 10V
SYMBOL Misc\\EuropeanResistor -336 416 M180
WINDOW 0 31 76 Left 2
WINDOW 3 31 40 Left 2
SYMATTR InstName POT1b
SYMATTR Value R = {10k-time*10k+1m}
SYMBOL Misc\\EuropeanResistor -336 304 M180
WINDOW 0 31 76 Left 2
WINDOW 3 31 40 Left 2
SYMATTR InstName POT1a
SYMATTR Value R = {10k*time+1m}
TEXT -440 448 Left 2 !.tran 1
TEXT -280 120 Center 2 ;Time Controlled Resistor
